# OC package for  MODFLOW-2000, generated by Flopy.
HEAD PRINT FORMAT   0
HEAD SAVE UNIT    30
DRAWDOWN PRINT FORMAT   0
DRAWDOWN SAVE UNIT    31

period 1 step 1 
  PRINT BUDGET
  SAVE BUDGET
  SAVE HEAD
  SAVE DRAWDOWN

period 2 step 1 
  PRINT BUDGET
  SAVE BUDGET
  SAVE HEAD
  SAVE DRAWDOWN

period 3 step 1 
  PRINT BUDGET
  SAVE BUDGET
  SAVE HEAD
  SAVE DRAWDOWN

period 4 step 1 
  PRINT BUDGET
  SAVE BUDGET
  SAVE HEAD
  SAVE DRAWDOWN

period 5 step 1 
  PRINT BUDGET
  SAVE BUDGET
  SAVE HEAD
  SAVE DRAWDOWN

period 6 step 1 
  PRINT BUDGET
  SAVE BUDGET
  SAVE HEAD
  SAVE DRAWDOWN

period 7 step 1 
  PRINT BUDGET
  SAVE BUDGET
  SAVE HEAD
  SAVE DRAWDOWN

period 8 step 1 
  PRINT BUDGET
  SAVE BUDGET
  SAVE HEAD
  SAVE DRAWDOWN

period 9 step 1 
  PRINT BUDGET
  SAVE BUDGET
  SAVE HEAD
  SAVE DRAWDOWN

period 10 step 1 
  PRINT BUDGET
  SAVE BUDGET
  SAVE HEAD
  SAVE DRAWDOWN

period 11 step 1 
  PRINT BUDGET
  SAVE BUDGET
  SAVE HEAD
  SAVE DRAWDOWN

period 12 step 1 
  PRINT BUDGET
  SAVE BUDGET
  SAVE HEAD
  SAVE DRAWDOWN

period 13 step 1 
  PRINT BUDGET
  SAVE BUDGET
  SAVE HEAD
  SAVE DRAWDOWN

period 14 step 1 
  PRINT BUDGET
  SAVE BUDGET
  SAVE HEAD
  SAVE DRAWDOWN

period 15 step 1 
  PRINT BUDGET
  SAVE BUDGET
  SAVE HEAD
  SAVE DRAWDOWN

period 16 step 1 
  PRINT BUDGET
  SAVE BUDGET
  SAVE HEAD
  SAVE DRAWDOWN

period 17 step 1 
  PRINT BUDGET
  SAVE BUDGET
  SAVE HEAD
  SAVE DRAWDOWN

period 18 step 1 
  PRINT BUDGET
  SAVE BUDGET
  SAVE HEAD
  SAVE DRAWDOWN

period 19 step 1 
  PRINT BUDGET
  SAVE BUDGET
  SAVE HEAD
  SAVE DRAWDOWN

period 20 step 1 
  PRINT BUDGET
  SAVE BUDGET
  SAVE HEAD
  SAVE DRAWDOWN

period 21 step 1 
  PRINT BUDGET
  SAVE BUDGET
  SAVE HEAD
  SAVE DRAWDOWN

period 22 step 1 
  PRINT BUDGET
  SAVE BUDGET
  SAVE HEAD
  SAVE DRAWDOWN

period 23 step 1 
  PRINT BUDGET
  SAVE BUDGET
  SAVE HEAD
  SAVE DRAWDOWN

period 24 step 1 
  PRINT BUDGET
  SAVE BUDGET
  SAVE HEAD
  SAVE DRAWDOWN

period 25 step 1 
  PRINT BUDGET
  SAVE BUDGET
  SAVE HEAD
  SAVE DRAWDOWN

period 26 step 1 
  PRINT BUDGET
  SAVE BUDGET
  SAVE HEAD
  SAVE DRAWDOWN

period 27 step 1 
  PRINT BUDGET
  SAVE BUDGET
  SAVE HEAD
  SAVE DRAWDOWN

period 28 step 1 
  PRINT BUDGET
  SAVE BUDGET
  SAVE HEAD
  SAVE DRAWDOWN

period 29 step 1 
  PRINT BUDGET
  SAVE BUDGET
  SAVE HEAD
  SAVE DRAWDOWN

period 30 step 1 
  PRINT BUDGET
  SAVE BUDGET
  SAVE HEAD
  SAVE DRAWDOWN

period 31 step 1 
  PRINT BUDGET
  SAVE BUDGET
  SAVE HEAD
  SAVE DRAWDOWN

period 32 step 1 
  PRINT BUDGET
  SAVE BUDGET
  SAVE HEAD
  SAVE DRAWDOWN

