# DRN package for  MODFLOW-2000, generated by Flopy.
       181        50
       181         0 # stress period 1
         open/close ./DRN_0000.dat
       180         0 # stress period 2
         open/close ./DRN_0001.dat
       180         0 # stress period 3
         open/close ./DRN_0002.dat
       180         0 # stress period 4
         open/close ./DRN_0003.dat
       180         0 # stress period 5
         open/close ./DRN_0004.dat
       180         0 # stress period 6
         open/close ./DRN_0005.dat
       180         0 # stress period 7
         open/close ./DRN_0006.dat
       180         0 # stress period 8
         open/close ./DRN_0007.dat
       180         0 # stress period 9
         open/close ./DRN_0008.dat
       180         0 # stress period 10
         open/close ./DRN_0009.dat
       180         0 # stress period 11
         open/close ./DRN_0010.dat
       180         0 # stress period 12
         open/close ./DRN_0011.dat
       180         0 # stress period 13
         open/close ./DRN_0012.dat
       180         0 # stress period 14
         open/close ./DRN_0013.dat
       180         0 # stress period 15
         open/close ./DRN_0014.dat
       180         0 # stress period 16
         open/close ./DRN_0015.dat
       180         0 # stress period 17
         open/close ./DRN_0016.dat
       180         0 # stress period 18
         open/close ./DRN_0017.dat
       180         0 # stress period 19
         open/close ./DRN_0018.dat
       180         0 # stress period 20
         open/close ./DRN_0019.dat
       180         0 # stress period 21
         open/close ./DRN_0020.dat
       180         0 # stress period 22
         open/close ./DRN_0021.dat
       180         0 # stress period 23
         open/close ./DRN_0022.dat
       180         0 # stress period 24
         open/close ./DRN_0023.dat
       180         0 # stress period 25
         open/close ./DRN_0024.dat
       180         0 # stress period 26
         open/close ./DRN_0025.dat
       180         0 # stress period 27
         open/close ./DRN_0026.dat
       180         0 # stress period 28
         open/close ./DRN_0027.dat
       180         0 # stress period 29
         open/close ./DRN_0028.dat
       180         0 # stress period 30
         open/close ./DRN_0029.dat
       180         0 # stress period 31
         open/close ./DRN_0030.dat
       180         0 # stress period 32
         open/close ./DRN_0031.dat
