# DIS package for  MODFLOW-2000, generated by Flopy.
        12       279       229        32         4         1
  0  0  0  0  0  0  0  0  0  0  0  0
OPEN/CLOSE                      ./delr.ref               1     (FREE)  0 delr                          
OPEN/CLOSE                      ./delc.ref               1     (FREE)  0 delc                          
OPEN/CLOSE                 ./model_top.ref               1     (FREE) -1 model_top                     
OPEN/CLOSE              ./botm_layer_1.ref               1     (FREE) -1 botm_layer_0                  
OPEN/CLOSE              ./botm_layer_2.ref               1     (FREE) -1 botm_layer_1                  
OPEN/CLOSE              ./botm_layer_3.ref               1     (FREE) -1 botm_layer_2                  
OPEN/CLOSE              ./botm_layer_4.ref               1     (FREE) -1 botm_layer_3                  
OPEN/CLOSE              ./botm_layer_5.ref               1     (FREE) -1 botm_layer_4                  
OPEN/CLOSE              ./botm_layer_6.ref               1     (FREE) -1 botm_layer_5                  
OPEN/CLOSE              ./botm_layer_7.ref               1     (FREE) -1 botm_layer_6                  
OPEN/CLOSE              ./botm_layer_8.ref               1     (FREE) -1 botm_layer_7                  
OPEN/CLOSE              ./botm_layer_9.ref               1     (FREE) -1 botm_layer_8                  
OPEN/CLOSE             ./botm_layer_10.ref               1     (FREE) -1 botm_layer_9                  
OPEN/CLOSE             ./botm_layer_11.ref               1     (FREE) -1 botm_layer_10                 
OPEN/CLOSE             ./botm_layer_12.ref               1     (FREE) -1 botm_layer_11                 
  73070.000000             1  1.100000  TR 
    365.000000             1  1.100000  TR 
    365.000000             1  1.100000  TR 
    365.000000             1  1.100000  TR 
    366.000000             1  1.100000  TR 
    365.000000             1  1.100000  TR 
    365.000000             1  1.100000  TR 
    365.000000             1  1.100000  TR 
    366.000000             1  1.100000  TR 
    365.000000             1  1.100000  TR 
    365.000000             1  1.100000  TR 
    365.000000             1  1.100000  TR 
    366.000000             1  1.100000  TR 
    365.000000             1  1.100000  TR 
    365.000000             1  1.100000  TR 
    365.000000             1  1.100000  TR 
    366.000000             1  1.100000  TR 
    365.000000             1  1.100000  TR 
    365.000000             1  1.100000  TR 
    365.000000             1  1.100000  TR 
    366.000000             1  1.100000  TR 
    365.000000             1  1.100000  TR 
    365.000000             1  1.100000  TR 
    365.000000             1  1.100000  TR 
    366.000000             1  1.100000  TR 
    365.000000             1  1.100000  TR 
    365.000000             1  1.100000  TR 
    365.000000             1  1.100000  TR 
    366.000000             1  1.100000  TR 
    365.000000             1  1.100000  TR 
    365.000000             1  1.100000  TR 
    365.000000             1  1.100000  TR 
