# Name file for MODFLOW-2000, generated by Flopy version 3.3.5.
#xll:0.0; yll:0.0; rotation:0.0; units:feet; lenuni:1; start_datetime:1-1-1970
LIST               6  sa00_flow.out
DIS               25  sa00_flow.disrw
WEL               16  sa00_flow.wel
DRN               12  sa00_flow.drn
RCH               13  sa00_flow.rch
OC                22  sa00_flow.oc
DATA(BINARY)     155  ../ModelFiles/sa00_flow.cw5
DATA(BINARY)      50  sa00_flow.cbb REPLACE
DATA(BINARY)      30  sa00_flow.hds REPLACE
DATA(BINARY)      31  sa00_flow.ddn REPLACE
